[TITLE]
;;Project Title/Notes
VIBe

[OPTIONS]
;;Option             Value
FLOW_UNITS           LPS
INFILTRATION         HORTON
FLOW_ROUTING         DYNWAVE
LINK_OFFSETS         DEPTH
MIN_SLOPE            0
ALLOW_PONDING        NO
SKIP_STEADY_STATE    NO

START_DATE           01/01/2014
START_TIME           00:00:00
REPORT_START_DATE    01/01/2014
REPORT_START_TIME    00:00:00
END_DATE             01/01/2014
END_TIME             07:30:00
SWEEP_START          01/01
SWEEP_END            01/01
DRY_DAYS             0
REPORT_STEP          00:05:00
WET_STEP             00:00:05
DRY_STEP             00:00:05
ROUTING_STEP         0:00:01 
RULE_STEP            00:00:00

INERTIAL_DAMPING     PARTIAL
NORMAL_FLOW_LIMITED  BOTH
FORCE_MAIN_EQUATION  H-W
VARIABLE_STEP        0.75
LENGTHENING_STEP     10
MIN_SURFAREA         1.14
MAX_TRIALS           8
HEAD_TOLERANCE       0.0015
SYS_FLOW_TOL         5
LAT_FLOW_TOL         5
MINIMUM_STEP         0.5
THREADS              1

[EVAPORATION]
;;Data Source    Parameters
;;-------------- ----------------
CONSTANT         0.0
DRY_ONLY         NO

[RAINGAGES]
;;Name           Format    Interval SCF      Source    
;;-------------- --------- ------ ------ ----------
RG01             VOLUME    0:15     1.0      TIMESERIES 20years         

[SUBCATCHMENTS]
;;Name           Rain Gage        Outlet           Area     %Imperv  Width    %Slope   CurbLen  SnowPack        
;;-------------- ---------------- ---------------- -------- -------- -------- -------- -------- ----------------
sub1             RG01             node183          0.120992976 64.441000559 34.784044625 0.100000000 1                        
sub2             RG01             node258          0.096103109 50.025170489 31.000501479 0.100000000 1                        
sub3             RG01             node278          0.056172691 82.893064934 23.700778686 0.100000000 1                        
sub4             RG01             node160          0.097582749 44.637329753 31.238237581 0.100000000 1                        
sub5             RG01             node258          0.020156630 92.695229591 14.197404533 0.100000000 1                        
sub6             RG01             node258          0.029699149 30.000000000 17.233440926 0.100000000 1                        
sub7             RG01             node324          0.077378221 48.486203472 27.816941030 0.100000000 1                        
sub8             RG01             node243          0.033501604 71.930979214 18.303443504 0.100000000 1                        
sub9             RG01             node768          0.096558648 50.594116105 31.073887428 0.100000000 1                        
sub10            RG01             node1030         0.070764703 57.482653290 26.601635866 0.100000000 1                        
sub11            RG01             node1065         0.466731855 30.000000000 68.317776264 0.100000000 1                        
sub12            RG01             node1030         0.190781919 59.192671401 43.678589636 0.100000000 1                        
sub13            RG01             node392          0.072018939 71.927448324 26.836344633 0.100000000 1                        
sub14            RG01             node1085         0.068210347 70.178870180 26.117110635 0.100000000 1                        
sub15            RG01             node972          0.061330833 79.255488085 24.765062746 0.100000000 1                        
sub16            RG01             node176          0.025014633 100.000000000 15.816015128 0.100000000 1                        
sub17            RG01             node65           0.101736440 33.371268856 31.896150310 0.100000000 1                        
sub18            RG01             node306          0.051630159 75.260914846 22.722270879 0.100000000 1                        
sub19            RG01             node310          0.005879284 30.000000000 7.667648922 0.100000000 1                        
sub20            RG01             node281          0.038416318 67.174778473 19.600081165 0.100000000 1                        
sub21            RG01             node157          0.125506763 30.000000000 35.426933737 0.100000000 1                        
sub22            RG01             node1010         0.018511822 30.000000000 13.605815774 0.100000000 1                        
sub23            RG01             node564          0.197282643 47.288957970 44.416510773 0.100000000 1                        
sub24            RG01             node286          0.064637210 54.918601310 25.423848956 0.100000000 1                        
sub25            RG01             node311          0.052883669 73.889477289 22.996449401 0.100000000 1                        
sub26            RG01             node320          0.094477760 61.342278779 30.737234789 0.100000000 1                        
sub27            RG01             node160          0.156948923 50.431945881 39.616779627 0.100000000 1                        
sub28            RG01             node573          0.244164006 57.944922846 49.412954376 0.100000000 1                        
sub29            RG01             node206          0.061481686 78.662734929 24.795500897 0.100000000 1                        
sub30            RG01             node908          0.132578579 53.446992235 36.411341510 0.100000000 1                        
sub31            RG01             node451          0.087773483 50.938139621 29.626589915 0.100000000 1                        
sub32            RG01             node751          0.032205535 93.089989412 17.945900546 0.100000000 1                        
sub33            RG01             node617          0.045992373 68.274652425 21.445832548 0.100000000 1                        
sub34            RG01             node53           0.316358358 93.323071066 56.245742746 0.100000000 1                        
sub35            RG01             node28           0.135184330 54.897570903 36.767421749 0.100000000 1                        
sub36            RG01             node772          0.067036709 64.802696155 25.891448181 0.100000000 1                        
sub37            RG01             node382          0.065318100 58.620753159 25.557405940 0.100000000 1                        
sub38            RG01             node297          0.132320843 62.192458142 36.375932069 0.100000000 1                        
sub39            RG01             node140          0.065137285 69.665301079 25.522007243 0.100000000 1                        
sub40            RG01             node361          0.074309542 55.675572273 27.259776549 0.100000000 1                        
sub41            RG01             node418          0.065709942 57.979526249 25.633950442 0.100000000 1                        
sub42            RG01             node751          0.074538221 51.873650902 27.301688831 0.100000000 1                        
sub43            RG01             node751          0.013540134 30.000000000 11.636208277 0.100000000 1                        
sub44            RG01             node640          0.209153455 63.391735388 45.733298076 0.100000000 1                        
sub45            RG01             node804          0.065636608 53.072301929 25.619642388 0.100000000 1                        
sub46            RG01             node298          0.073311779 53.817468791 27.076147992 0.100000000 1                        
sub47            RG01             node267          0.036234456 74.647190483 19.035350217 0.100000000 1                        
sub48            RG01             node59           0.140295959 46.536216068 37.456102163 0.100000000 1                        
sub49            RG01             node942          0.396143164 56.149133736 62.939905023 0.100000000 1                        
sub50            RG01             node911          0.027802806 87.919638436 16.674173565 0.100000000 1                        
sub51            RG01             node905          0.258827798 67.057077041 50.875121416 0.100000000 1                        
sub52            RG01             node604          0.020808762 100.000000000 14.425242569 0.100000000 1                        
sub53            RG01             node774          0.686151535 49.896795764 82.834264356 0.100000000 1                        
sub54            RG01             node855          0.070601151 67.108198511 26.570877140 0.100000000 1                        
sub55            RG01             node606          0.029837042 63.974290968 17.273402148 0.100000000 1                        
sub56            RG01             node606          0.042695801 74.390188164 20.662962171 0.100000000 1                        
sub57            RG01             node713          0.097466733 44.938665524 31.219662622 0.100000000 1                        
sub58            RG01             node688          0.049306056 71.010527943 22.204967100 0.100000000 1                        
sub59            RG01             node1008         0.031552423 77.548074596 17.763001840 0.100000000 1                        
sub60            RG01             node804          0.314130274 55.022302546 56.047325875 0.100000000 1                        
sub61            RG01             node159          0.058517069 30.000000000 24.190301528 0.100000000 1                        
sub62            RG01             node115          0.096359825 63.467420979 31.041878892 0.100000000 1                        
sub63            RG01             node333          0.155888108 45.614053285 39.482668122 0.100000000 1                        
sub64            RG01             node283          0.041747595 76.472780223 20.432228294 0.100000000 1                        
sub65            RG01             node496          0.130723941 56.050324736 36.155765900 0.100000000 1                        
sub66            RG01             node496          0.057847990 53.530723438 24.051609179 0.100000000 1                        
sub67            RG01             node608          0.023451780 86.094695039 15.313974024 0.100000000 1                        
sub68            RG01             node546          0.042617861 74.796995665 20.644093799 0.100000000 1                        
sub69            RG01             node352          0.182291778 60.851058981 42.695641198 0.100000000 1                        
sub70            RG01             node665          0.031465598 98.816205169 17.738544904 0.100000000 1                        
sub71            RG01             node529          0.046444795 55.716419911 21.551054598 0.100000000 1                        
sub72            RG01             node80           0.108972387 68.097246568 33.010965935 0.100000000 1                        
sub73            RG01             node378          0.078263635 72.565381853 27.975638574 0.100000000 1                        
sub74            RG01             node709          0.089977227 72.897518596 29.996204324 0.100000000 1                        
sub75            RG01             node715          0.070706436 55.520797908 26.590681859 0.100000000 1                        
sub76            RG01             node703          0.061113340 46.329587987 24.721112418 0.100000000 1                        
sub77            RG01             node1007         0.014999041 30.000000000 12.247057380 0.100000000 1                        
sub78            RG01             node404          0.115931880 65.795543720 34.048770906 0.100000000 1                        
sub79            RG01             node186          0.101464271 64.779494815 31.853456801 0.100000000 1                        
sub80            RG01             node751          0.017138890 30.000000000 13.091558177 0.100000000 1                        
sub81            RG01             node751          0.030604873 77.866050305 17.494248537 0.100000000 1                        
sub82            RG01             node805          0.065189044 67.689569951 25.532145195 0.100000000 1                        
sub83            RG01             node314          0.067869709 57.792953036 26.051815451 0.100000000 1                        
sub84            RG01             node317          0.166058559 71.279612193 40.750283281 0.100000000 1                        
sub85            RG01             node252          0.047303521 44.674420773 21.749372580 0.100000000 1                        
sub86            RG01             node768          0.083339292 49.557329577 28.868545539 0.100000000 1                        
sub87            RG01             node285          0.056722560 49.309537553 23.816498583 0.100000000 1                        
sub88            RG01             node1011         0.036587574 94.297812110 19.127878545 0.100000000 1                        
sub89            RG01             node620          0.053034192 54.098157273 23.029153617 0.100000000 1                        
sub90            RG01             node758          1.376319950 93.269792940 117.316663337 0.100000000 1                        
sub91            RG01             node176          0.046931336 100.000000000 21.663641464 0.100000000 1                        
sub92            RG01             node623          0.030348108 89.582988671 17.420708503 0.100000000 1                        
sub93            RG01             node579          0.039494926 100.000000000 19.873330326 0.100000000 1                        
sub94            RG01             node204          0.484424144 84.643373479 69.600585049 0.100000000 1                        
sub95            RG01             node175          1.644812633 53.052626589 128.250248860 0.100000000 1                        
sub96            RG01             node720          0.125861915 67.771982629 35.477022889 0.100000000 1                        
sub97            RG01             node720          0.050002018 72.923213516 22.361130932 0.100000000 1                        
sub98            RG01             node701          4.073476402 62.308441252 201.828551048 0.100000000 1                        
sub99            RG01             node346          0.212645001 59.722056100 46.113447159 0.100000000 1                        
sub100           RG01             node902          0.070157106 63.698906914 26.487186685 0.100000000 1                        
sub101           RG01             node309          0.146329295 48.283816139 38.253012343 0.100000000 1                        
sub102           RG01             node281          0.067632335 78.911448583 26.006217463 0.100000000 1                        
sub103           RG01             node629          0.148915524 39.902924189 38.589574186 0.100000000 1                        
sub104           RG01             node176          0.021528525 30.000000000 14.672602016 0.100000000 1                        
sub105           RG01             node941          0.063464725 73.559528226 25.192206060 0.100000000 1                        
sub106           RG01             node176          0.107081737 69.359904689 32.723345893 0.100000000 1                        
sub107           RG01             node20           0.019927649 90.638119290 14.116532666 0.100000000 1                        
sub108           RG01             node462          0.034220054 68.636531303 18.498663313 0.100000000 1                        
sub109           RG01             node684          0.065557203 53.002774623 25.604140960 0.100000000 1                        
sub110           RG01             node277          0.050382852 53.753776740 22.446124863 0.100000000 1                        
sub111           RG01             node268          0.217090555 60.806474503 46.592977445 0.100000000 1                        
sub112           RG01             node241          0.013555703 100.000000000 11.642896296 0.100000000 1                        
sub113           RG01             node145          0.203200011 77.075368219 45.077711897 0.100000000 1                        
sub114           RG01             node480          3.253691316 33.421275452 180.379913394 0.100000000 1                        
sub115           RG01             node134          0.735819119 34.419090923 85.779899712 0.100000000 1                        
sub116           RG01             node431          3.843516203 30.523302685 196.048876636 0.100000000 1                        
sub117           RG01             node225          0.097341191 30.000000000 31.199549796 0.100000000 1                        
sub118           RG01             node541          3.849408503 33.517588273 196.199095394 0.100000000 1                        
sub119           RG01             node714          4.081305288 30.000000000 202.022406888 0.100000000 1                        
sub120           RG01             node125          0.109158884 30.000000000 33.039201580 0.100000000 1                        
sub121           RG01             node410          0.074662465 49.382054070 27.324433214 0.100000000 1                        
sub122           RG01             node319          0.146915936 30.000000000 38.329614680 0.100000000 1                        
sub123           RG01             node755          0.370656787 88.174127036 60.881588888 0.100000000 1                        
sub124           RG01             node282          0.045135449 92.153839451 21.245105089 0.100000000 1                        
sub125           RG01             node659          0.047966245 98.848305696 21.901197401 0.100000000 1                        
sub126           RG01             node676          0.010384340 30.000000000 10.190358357 0.100000000 1                        
sub127           RG01             node948          0.075023506 83.255374998 27.390419186 0.100000000 1                        
sub128           RG01             node247          0.079525851 30.000000000 28.200328164 0.100000000 1                        
sub129           RG01             node236          0.300006510 66.418068320 54.772849987 0.100000000 1                        
sub130           RG01             node141          0.465851211 44.988011187 68.253293755 0.100000000 1                        
sub131           RG01             node548          0.076560138 46.482900219 27.669502773 0.100000000 1                        
sub132           RG01             node548          0.075303864 53.872867563 27.441549548 0.100000000 1                        
sub133           RG01             node430          0.042489493 30.000000000 20.612979698 0.100000000 1                        
sub134           RG01             node461          0.172032144 51.059989973 41.476757783 0.100000000 1                        
sub135           RG01             node449          0.168832130 52.125218910 41.089187120 0.100000000 1                        
sub136           RG01             node506          0.737655986 30.000000000 85.886901566 0.100000000 1                        
sub137           RG01             node841          0.605586298 55.048467835 77.819425490 0.100000000 1                        
sub138           RG01             node307          0.141947078 65.476154189 37.675864749 0.100000000 1                        
sub139           RG01             node561          1.011317282 100.000000000 100.564272076 0.100000000 1                        
sub140           RG01             node365          0.030982325 100.000000000 17.601796862 0.100000000 1                        
sub141           RG01             node322          0.147858009 59.021559869 38.452309341 0.100000000 1                        
sub142           RG01             node308          0.071242027 52.089042663 26.691202089 0.100000000 1                        
sub143           RG01             node335          0.050767080 100.000000000 22.531551155 0.100000000 1                        
sub144           RG01             node193          0.139052587 41.780381444 37.289755586 0.100000000 1                        
sub145           RG01             node530          0.032204337 30.000000000 17.945566725 0.100000000 1                        
sub146           RG01             node901          0.041056674 30.000000000 20.262446449 0.100000000 1                        
sub147           RG01             node851          0.029058937 100.000000000 17.046681973 0.100000000 1                        
sub148           RG01             node221          0.097246865 30.000000000 31.184429606 0.100000000 1                        
sub149           RG01             node168          0.056011061 50.990617156 23.666656184 0.100000000 1                        
sub150           RG01             node278          0.035903398 71.768320340 18.948191909 0.100000000 1                        
sub151           RG01             node403          0.077755755 48.992776958 27.884718950 0.100000000 1                        
sub152           RG01             node438          0.299920686 53.421641609 54.765014948 0.100000000 1                        
sub153           RG01             node493          0.093542254 47.244438095 30.584678232 0.100000000 1                        
sub154           RG01             node428          0.186228274 64.860725923 43.154174019 0.100000000 1                        
sub155           RG01             node256          0.175953172 72.734802232 41.946772493 0.100000000 1                        
sub156           RG01             node238          0.174687067 73.398134198 41.795581997 0.100000000 1                        
sub157           RG01             node507          0.546315538 58.624563940 73.913161047 0.100000000 1                        
sub158           RG01             node907          0.405941129 57.283480220 63.713509497 0.100000000 1                        
sub159           RG01             node454          0.031431948 79.876427953 17.729057486 0.100000000 1                        
sub160           RG01             node443          0.100958329 63.958739767 31.773940438 0.100000000 1                        
sub161           RG01             node375          0.336092775 54.251103033 57.973509020 0.100000000 1                        
sub162           RG01             node348          0.074360818 30.000000000 27.269180028 0.100000000 1                        
sub163           RG01             node217          0.344708480 62.151908084 58.711879579 0.100000000 1                        
sub164           RG01             node898          0.035702320 71.078633888 18.895057636 0.100000000 1                        
sub165           RG01             node394          0.176887451 63.776570320 42.057989839 0.100000000 1                        
sub166           RG01             node335          1.155418296 30.000000000 107.490385415 0.100000000 1                        
sub167           RG01             node347          0.143980520 86.104762830 37.944765080 0.100000000 1                        
sub168           RG01             node434          0.097524402 77.662929616 31.228897157 0.100000000 1                        
sub169           RG01             node399          0.379586398 57.959263057 61.610583319 0.100000000 1                        
sub170           RG01             node402          0.026299504 30.000000000 16.217121668 0.100000000 1                        
sub171           RG01             node449          0.072987054 67.715626417 27.016116251 0.100000000 1                        
sub172           RG01             node461          0.073028040 63.711472228 27.023700625 0.100000000 1                        
sub173           RG01             node570          0.151411713 59.525765038 38.911658022 0.100000000 1                        
sub174           RG01             node570          0.073383236 58.675150768 27.089340261 0.100000000 1                        
sub175           RG01             node570          0.144916289 62.442499216 38.067872140 0.100000000 1                        
sub176           RG01             node958          0.346954578 58.964072886 58.902850324 0.100000000 1                        
sub177           RG01             node27           0.222305044 55.764239408 47.149235864 0.100000000 1                        
sub178           RG01             node318          0.287736316 54.156741751 53.641058520 0.100000000 1                        
sub179           RG01             node327          0.192653126 52.722048791 43.892268830 0.100000000 1                        
sub180           RG01             node811          0.562014389 56.836443352 74.967618924 0.100000000 1                        
sub181           RG01             node947          0.713088896 60.712275378 84.444591040 0.100000000 1                        
sub182           RG01             node689          0.199785462 59.651908387 44.697367007 0.100000000 1                        
sub183           RG01             node725          0.208737529 55.569833797 45.687802447 0.100000000 1                        
sub184           RG01             node692          0.241451557 58.712124878 49.137720397 0.100000000 1                        
sub185           RG01             node568          0.401897796 57.892018968 63.395409577 0.100000000 1                        
sub186           RG01             node568          0.093244865 41.424397799 30.536022226 0.100000000 1                        
sub187           RG01             node170          0.036626832 77.815638093 19.138137894 0.100000000 1                        
sub188           RG01             node457          0.006800806 30.000000000 8.246700213 0.100000000 1                        
sub189           RG01             node741          0.172169797 58.089648187 41.493348459 0.100000000 1                        
sub190           RG01             node331          0.131970189 64.407743946 36.327701449 0.100000000 1                        
sub191           RG01             node970          0.314576863 57.886153060 56.087152121 0.100000000 1                        
sub192           RG01             node1047         0.413132363 56.862632980 64.275373436 0.100000000 1                        
sub193           RG01             node61           0.125713444 70.579619419 35.456091744 0.100000000 1                        
sub194           RG01             node610          0.269533233 64.783964620 51.916590118 0.100000000 1                        
sub195           RG01             node566          0.072554482 65.489701326 26.935939186 0.100000000 1                        
sub196           RG01             node566          0.153774579 58.317855082 39.214101947 0.100000000 1                        
sub197           RG01             node566          0.146550753 51.304661244 38.281947802 0.100000000 1                        
sub198           RG01             node931          0.023515841 30.000000000 15.334875629 0.100000000 1                        
sub199           RG01             node493          0.149669415 73.166330624 38.687131551 0.100000000 1                        
sub200           RG01             node500          0.152336883 64.175575086 39.030357837 0.100000000 1                        
sub201           RG01             node500          0.156647626 74.711123263 39.578734981 0.100000000 1                        
sub202           RG01             node438          0.072026988 53.375253926 26.837844232 0.100000000 1                        
sub203           RG01             node483          0.148401722 52.237576479 38.522944071 0.100000000 1                        
sub204           RG01             node339          0.239034943 55.046040242 48.891199920 0.100000000 1                        
sub205           RG01             node489          0.131366639 55.567183992 36.244535995 0.100000000 1                        
sub206           RG01             node638          0.072530382 51.687107224 26.931465293 0.100000000 1                        
sub207           RG01             node1069         0.133786973 61.589433062 36.576901653 0.100000000 1                        
sub208           RG01             node79           0.071606046 55.803429073 26.759306002 0.100000000 1                        
sub209           RG01             node318          0.072574842 44.203131385 26.939718199 0.100000000 1                        
sub210           RG01             node537          0.072898033 77.443432007 26.999635783 0.100000000 1                        
sub211           RG01             node660          0.071505924 57.969159257 26.740591565 0.100000000 1                        
sub212           RG01             node342          0.192284077 54.918627656 43.850208351 0.100000000 1                        
sub213           RG01             node343          0.278554994 50.677522398 52.778309364 0.100000000 1                        
sub214           RG01             node365          0.071669706 52.938290786 26.771198378 0.100000000 1                        
sub215           RG01             node326          0.085660313 30.000000000 29.267783221 0.100000000 1                        
sub216           RG01             node124          0.171397506 63.355233364 41.400181897 0.100000000 1                        
sub217           RG01             node234          0.138718529 54.496810870 37.244936470 0.100000000 1                        
sub218           RG01             node239          0.069845095 66.697405721 26.428222582 0.100000000 1                        
sub219           RG01             node261          0.226007931 57.757685440 47.540291401 0.100000000 1                        
sub220           RG01             node282          0.144796550 68.971439154 38.052141795 0.100000000 1                        
sub221           RG01             node467          0.077315834 30.000000000 27.805725031 0.100000000 1                        